data_str_m1_o10_o18_f0_pcu.sym.166
_audit_creation_date              2012-12-10T16:38:32-0500
_audit_creation_method            fapswitch 2.2
_symmetry_space_group_name_H-M    P1
_symmetry_Int_Tables_number       1
_space_group_crystal_system       triclinic
_cell_length_a                    10.823236
_cell_length_b                    10.876296
_cell_length_c                    17.850064
_cell_angle_alpha                 99.022816
_cell_angle_beta                  72.653681
_cell_angle_gamma                 98.623794
_cell_volume                      1968.96532476

loop_
_atom_site_label
_atom_site_type_symbol
_atom_type_description
_atom_site_fract_x
_atom_site_fract_y
_atom_site_fract_z
_atom_type_partial_charge
C1    C     C_R   0.156872 0.479451 0.518367 0.929245
C2    C     C_R   0.567114 0.384547 0.921948 -0.230327
C3    C     C_R   0.616745 0.310495 0.960387 0.489645
C4    C     C_R   0.843280 0.520727 0.482080 0.747226
C5    C     C_R   0.597277 0.335375 0.043128 -0.111356
C6    C     C_R   0.539278 0.445763 0.084203 -0.061148
C7    C     C_R   0.634850 0.254940 0.086317 -0.000190
C8    C     C_R   0.627316 0.291630 0.165863 -0.358050
C9    C     C_R   0.547850 0.486715 0.162404 0.410885
C10   C     C_2   0.982581 0.526523 0.472893 0.306450
C11   C     C_2   0.020971 0.476266 0.524971 -0.428764
C12   C     C_R   0.293676 0.654727 0.845341 -0.217150
C13   C     C_2   0.548421 0.969468 0.484417 0.226800
C14   C     C_2   0.450636 0.038871 0.525391 -0.263161
C15   C     C_R   0.467938 0.169167 0.517304 0.902337
C16   C     C_R   0.531319 0.833604 0.484408 0.751258
C17   C     C_R   0.564591 0.434830 0.287995 0.886569
C18   C     C_R   0.435338 0.564382 0.712827 0.872683
C19   C     C_R   0.403233 0.592318 0.800292 -0.269229
C20   C     C_R   0.586767 0.406841 0.202935 -0.107423
C21   C     C_R   0.266838 0.677937 0.928211 0.428974
C22   C     C_3   0.299296 0.854212 0.106760 0.134119
C23   C     C_R   0.485278 0.557425 0.839461 0.448338
C24   C     C_3   0.203675 0.946268 0.155593 -0.334606
C25   C     C_3   0.273938 0.076853 0.169362 -0.890176
C26   C     C_2   0.669600 0.126686 0.054134 0.955042
C27   C     C_3   0.097602 0.702161 0.421461 0.087740
C28   C     C_3   0.200911 0.749862 0.349722 -0.331733
C29   C     C_3   0.234191 0.891541 0.362489 -0.937208
C30   C     C_3   0.773780 0.011995 0.453485 0.100055
C31   C     C_3   0.813645 0.129627 0.504057 -0.363250
C32   C     C_3   0.944158 0.122195 0.518772 -0.891794
C33   C     C_2   0.326137 0.994571 0.581527 0.862375
C34   C     C_R   0.443698 0.557962 0.922656 -0.138071
C35   C     C_3   0.622518 0.693034 0.182975 0.051036
C36   C     C_3   0.593057 0.813720 0.238402 -0.318666
C37   C     C_3   0.712280 0.910976 0.227245 -0.879207
C38   C     C_3   0.817722 0.248421 0.892549 0.077035
C39   C     C_3   0.861393 0.288619 0.809273 -0.387026
C40   C     C_3   0.009535 0.310171 0.778917 -0.872465
C41   C     C_3   0.046636 0.650180 0.984015 0.123283
C42   C     C_3   0.930141 0.713781 0.983833 -0.302381
C43   C     C_3   0.814024 0.617520 0.980022 -1.045385
C44   C     C_2   0.203371 0.696074 0.808468 1.015232
C45   C     C_R   0.343115 0.631701 0.967229 -0.137037
C46   C     C_3   0.701934 0.633676 0.804897 0.080298
C47   C     C_3   0.724774 0.717923 0.739681 -0.365676
C48   C     C_3   0.830402 0.826148 0.745312 -0.906543
C49   C     C_R   0.499618 0.487176 0.962354 0.025716
C50   C     C_R   0.476146 0.511207 0.045419 0.024807
C51   C     C_R   0.382024 0.592172 0.087819 -0.267176
C52   C     C_R   0.318738 0.654105 0.050019 0.450918
H1    H     H_    0.951913 0.440739 0.576917 0.136112
H2    H     H_    0.202366 0.141110 0.205950 0.268774
H3    H     H_    0.323116 0.114259 0.112108 0.290053
H4    H     H_    0.620772 0.957379 0.999586 0.324557
H5    H     H_    0.134939 0.728881 0.474289 0.162018
H6    H     H_    0.007572 0.747672 0.431137 0.144808
H7    H     H_    0.290793 0.703833 0.338637 0.239379
H8    H     H_    0.164355 0.725281 0.296699 0.241900
H9    H     H_    0.145468 0.939659 0.374843 0.265265
H10   H     H_    0.305789 0.923644 0.308520 0.256869
H11   H     H_    0.277737 0.917473 0.412507 0.290700
H12   H     H_    0.650681 0.228657 0.199971 0.175233
H13   H     H_    0.852763 0.999222 0.397374 0.166630
H14   H     H_    0.766192 0.928939 0.484651 0.124200
H15   H     H_    0.821290 0.213371 0.473736 0.246371
H16   H     H_    0.738259 0.139808 0.561920 0.244208
H17   H     H_    0.940035 0.037156 0.547122 0.268867
H18   H     H_    0.967331 0.205674 0.558736 0.267141
H19   H     H_    0.022986 0.119731 0.462192 0.273087
H20   H     H_    0.235963 0.925122 0.684701 0.366955
H21   H     H_    0.640380 0.713721 0.121445 0.156517
H22   H     H_    0.711717 0.661235 0.189556 0.165781
H23   H     H_    0.347042 0.602538 0.151377 0.223950
H24   H     H_    0.512823 0.852890 0.226387 0.203892
H25   H     H_    0.560855 0.792982 0.300717 0.253785
H26   H     H_    0.790947 0.876923 0.244079 0.262363
H27   H     H_    0.685739 0.999513 0.265318 0.283855
H28   H     H_    0.748629 0.930219 0.164698 0.280984
H29   H     H_    0.866867 0.165324 0.891667 0.195067
H30   H     H_    0.850828 0.323399 0.935021 0.116516
H31   H     H_    0.824399 0.214872 0.768180 0.248928
H32   H     H_    0.820585 0.376642 0.810015 0.226086
H33   H     H_    0.049010 0.381471 0.820103 0.277447
H34   H     H_    0.574948 0.353559 0.860403 0.218919
H35   H     H_    0.038000 0.343922 0.719887 0.272263
H36   H     H_    0.052462 0.221391 0.773207 0.268639
H37   H     H_    0.027938 0.616611 0.042511 0.171956
H38   H     H_    0.055344 0.566171 0.938491 0.111512
H39   H     H_    0.903395 0.781135 0.038226 0.224872
H40   H     H_    0.955755 0.766376 0.931735 0.259625
H41   H     H_    0.836562 0.554688 0.923497 0.273537
H42   H     H_    0.729067 0.666100 0.983558 0.264987
H43   H     H_    0.789777 0.560574 0.029882 0.263780
H44   H     H_    0.074023 0.646888 0.744812 0.327657
H45   H     H_    0.349883 0.889326 0.048671 0.191897
H46   H     H_    0.795208 0.597169 0.799118 0.165668
H47   H     H_    0.675365 0.690070 0.864124 0.134715
H48   H     H_    0.754312 0.661600 0.680880 0.227868
H49   H     H_    0.633310 0.757496 0.745019 0.215628
H50   H     H_    0.802080 0.884623 0.803370 0.278145
H51   H     H_    0.843728 0.885754 0.697749 0.265289
H52   H     H_    0.924367 0.789998 0.738126 0.261851
H53   H     H_    0.372294 0.850283 0.138860 0.120982
H54   H     H_    0.130488 0.951640 0.124118 0.252674
H55   H     H_    0.151632 0.912377 0.213600 0.220774
H56   H     H_    0.347644 0.073865 0.200850 0.260417
O1    O     O_3   0.500000 0.500000 0.500000 -0.499582
O2    O     O_R   0.470800 0.371790 0.332500 -0.636077
O3    O     O_R   0.380610 0.619380 0.674980 -0.621594
O4    O     O_R   0.632640 0.524780 0.317540 -0.639061
O5    O     O_R   0.515950 0.484050 0.674980 -0.590371
O6    O     O_3   0.230451 0.734821 0.095820 -0.626762
O7    O     O_2   0.767510 0.093182 0.061948 -0.671403
O8    O     O_R   0.587681 0.042576 0.017875 -0.787624
O9    O     O_3   0.072578 0.570741 0.406754 -0.623820
O10   O     O_3   0.659354 0.026114 0.433730 -0.650566
O11   O     O_2   0.222800 0.003532 0.569194 -0.655230
O12   O     O_R   0.535460 0.243030 0.556410 -0.648499
O13   O     O_R   0.326967 0.950449 0.650828 -0.744756
O14   O     O_3   0.513921 0.602240 0.201986 -0.680978
O15   O     O_3   0.681776 0.211773 0.915216 -0.614216
O16   O     O_3   0.159063 0.738473 0.971113 -0.587251
O17   O     O_2   0.187510 0.806898 0.816940 -0.610071
O18   O     O_R   0.133273 0.607665 0.766556 -0.831405
O19   O     O_3   0.609430 0.529375 0.796033 -0.639141
O20   O     O_R   0.437420 0.784080 0.535340 -0.628924
O21   O     O_R   0.223560 0.397520 0.472140 -0.612855
O22   O     O_R   0.803560 0.575360 0.436110 -0.632221
O23   O     O_R   0.209690 0.568800 0.556400 -0.646815
O24   O     O_R   0.763190 0.458310 0.535350 -0.668263
O25   O     O_R   0.414000 0.207090 0.472140 -0.633679
O26   O     O_R   0.613120 0.765800 0.436110 -0.643814
Zn1   Zn    Zn3+2 0.577310 0.422690 0.565550 0.975271
Zn2   Zn    Zn3+2 0.403760 0.371330 0.445150 1.007092
Zn3   Zn    Zn3+2 0.634990 0.589920 0.423760 0.966010
Zn4   Zn    Zn3+2 0.383940 0.616050 0.565540 1.001777

loop_
_geom_bond_atom_site_label_1
_geom_bond_atom_site_label_2
_ccdc_geom_bond_type
C41   H37   S    
C46   H47   S    
C29   H11   S    
C35   H22   S    
C47   H49   S    
H20   O13   S    
O1    Zn1   S    
C41   C42   S    
O2    Zn2   S    
C35   C36   S    
C1    C11   S    
C16   O26   A    
C17   O2    A    
C43   H42   S    
O26   Zn3   S    
C13   O10   S    
C7    C8    A    
C4    O24   A    
C31   H15   S    
C37   H27   S    
C44   O18   S    
C8    C20   A    
C7    C26   S    
C40   H35   S    
C36   C37   S    
C51   H23   S    
C39   H32   S    
C18   C19   S    
C1    O21   A    
C36   H25   S    
C30   C31   S    
C48   H52   S    
C17   C20   S    
C15   O12   A    
O1    Zn3   S    
C42   H39   S    
O20   Zn4   S    
C26   O7    D    
C36   H24   S    
C46   C47   S    
C35   H21   S    
C47   C48   S    
O25   Zn2   S    
C43   H43   S    
C38   O15   S    
C11   H1    S    
C28   H8    S    
C41   H38   S    
C46   H46   S    
C22   H45   S    
C13   C14   D    
C38   H30   S    
O1    Zn2   S    
C33   O13   S    
C14   C33   S    
C18   O5    A    
C3    O15   S    
C50   C51   A    
C32   H19   S    
C21   C45   A    
C27   O9    S    
C31   H16   S    
C37   H28   S    
C29   H9    S    
C44   O17   D    
C51   C52   A    
C46   O19   S    
C38   C39   S    
C24   C25   S    
C27   H5    S    
C39   C40   S    
C5    C7    A    
C4    O22   A    
C30   O10   S    
C45   C52   A    
C3    C5    A    
C48   H51   S    
C12   C21   A    
C6    C50   A    
C47   H48   S    
O1    Zn4   S    
C40   H33   S    
C19   C23   A    
C2    C49   A    
O21   Zn2   S    
C9    C20   A    
C31   C32   S    
C22   O6    S    
C23   C34   A    
C48   H50   S    
C9    O14   S    
H4    O8    S    
H44   O18   S    
C24   H55   S    
C25   H2    S    
C16   O20   A    
C30   H14   S    
C34   C45   A    
C8    H12   S    
C33   O11   D    
C38   H29   S    
C22   C24   S    
C24   H54   S    
C42   C43   S    
C4    C10   S    
C18   O3    A    
C17   O4    A    
C41   O16   S    
C23   O19   S    
C28   H7    S    
C29   H10   S    
C28   C29   S    
C34   C49   A    
O4    Zn3   S    
C35   O14   S    
C25   H3    S    
C1    O23   A    
C27   H6    S    
C32   H18   S    
C32   H17   S    
C15   O25   A    
C52   O6    S    
C22   H53   S    
C37   H26   S    
O12   Zn1   S    
C40   H36   S    
C21   O16   S    
C2    C3    A    
C39   H31   S    
C12   C44   S    
O23   Zn4   S    
C5    C6    A    
O24   Zn1   S    
C12   C19   A    
C43   H41   S    
C2    H34   S    
C42   H40   S    
C26   O8    S    
C30   H13   S    
C10   C11   D    
C6    C9    A    
O3    Zn4   S    
C49   C50   A    
O5    Zn1   S    
C13   C16   S    
C27   C28   S    
C10   O9    S    
C14   C15   S    
O22   Zn3   S    
C25   H56   S    
